/*--------------------------------*- C++ -*----------------------------------*\
| =========                 |                                                 |
| \\      /  F ield         | OpenFOAM: The Open Source CFD Toolbox           |
|  \\    /   O peration     | Version:  2.3.0                                 |
|   \\  /    A nd           | Web:      www.OpenFOAM.org                      |
|    \\/     M anipulation  |                                                 |
\*---------------------------------------------------------------------------*/
FoamFile
{
    version     2.0;
    format      ascii;
    class       dictionary;
    location    "system";
    object      probes;
}
// * * * * * * * * * * * * * * * * * * * * * * * * * * * * * * * * * * * * * //

// FOUNDATION
points
(
    (0.0 0.0 0.15)
    (0.0 0.0 0.45)
    (0.0 0.0 0.75)
    (0.0 0.0 1.05)
    (0.0 0.0 1.35)
    (0.0 0.0 1.65)
    (0.0 0.0 1.95)
    (0.0 0.0 2.25)
    (0.0 0.0 2.55)
    (0.0 0.0 2.85)
);
// ESI
probeLocations
(
    (0.0 0.0 0.15)
    (0.0 0.0 0.45)
    (0.0 0.0 0.75)
    (0.0 0.0 1.05)
    (0.0 0.0 1.35)
    (0.0 0.0 1.65)
    (0.0 0.0 1.95)
    (0.0 0.0 2.25)
    (0.0 0.0 2.55)
    (0.0 0.0 2.85)
);

fields  (T Bu);

#includeEtc "caseDicts/postProcessing/probes/probes.cfg"

// ************************************************************************* //
