/*--------------------------------*- C++ -*----------------------------------*\
| =========                 |                                                 |
| \\      /  F ield         | OpenFOAM: The Open Source CFD Toolbox           |
|  \\    /   O peration     | Version:  2.3.0                                 |
|   \\  /    A nd           | Web:      www.OpenFOAM.org                      |
|    \\/     M anipulation  |                                                 |
\*---------------------------------------------------------------------------*/
FoamFile
{
    version     2.0;
    format      ascii;
    class       volScalarField;
    location    "0";
    object      neutronFlux0;
}
// * * * * * * * * * * * * * * * * * * * * * * * * * * * * * * * * * * * * * //

dimensions      [0 -2 -1 0 0 0 0];

internalField   uniform 0;

boundaryField
{
    ".*Front|.*Back"
    {
        type            wedge;
        value           $internalField;
    }
    
    "cladInner|cladOuter"
    {
        type            fixedValue;
        value           uniform 0;
    }

    fuelOuter
    {
        type            fixedValue;
        value           uniform 1;
    }

}


// ************************************************************************* //
