/*--------------------------------*- C++ -*----------------------------------*\
| ========                 |                                                 |
| \      /  F ield         | OpenFOAM: The Open Source CFD Toolbox           |
|  \    /   O peration     | Version:  5.0                                   |
|   \  /    A nd           | Web:      www.OpenFOAM.org                      |
|    \/     M anipulation  |                                                 |
\*---------------------------------------------------------------------------*/
FoamFile
{
    version     9.0;
    format      ascii;
    class       dictionary;
    object      blockMeshDict;
}
// * * * * * * * * * * * * * * * * * * * * * * * * * * * * * * * * * * * * * //

convertToMeters 0.001; 

vertices 
(
    (0.0 -0.0 0.0)
    (4.499987505934708 -0.00981746536054146 0.0)
    (4.499987505934708 0.00981746536054146 0.0)
    (0.0 0.0 0.0)
    (0.0 -0.0 3000.0)
    (4.499987505934708 -0.00981746536054146 3000.0)
    (4.499987505934708 0.00981746536054146 3000.0)
    (0.0 0.0 3000.0)

    (4.564987325464876 -0.00995927319352706 0.0)
    (5.314985243120661 -0.01159551742028397 0.0)
    (5.314985243120661 0.01159551742028397 0.0)
    (4.564987325464876 0.00995927319352706 0.0)
    (4.564987325464876 -0.00995927319352706 3000.0)
    (5.314985243120661 -0.01159551742028397 3000.0)
    (5.314985243120661 0.01159551742028397 3000.0)
    (4.564987325464876 0.00995927319352706 3000.0)

    (4.564987325464876 -0.00995927319352706 3000.0)
    (5.314985243120661 -0.01159551742028397 3000.0)
    (5.314985243120661 0.01159551742028397 3000.0)
    (4.564987325464876 0.00995927319352706 3000.0)
    (4.564987325464876 -0.00995927319352706 3200.0)
    (5.314985243120661 -0.01159551742028397 3200.0)
    (5.314985243120661 0.01159551742028397 3200.0)
    (4.564987325464876 0.00995927319352706 3200.0)

);

blocks 
(
    hex ( 0 1 2 3 4 5 6 7 ) fuel (30 1 10) simpleGrading (1 1 1)
    hex ( 8 9 10 11 12 13 14 15 ) cladding (10 1 10) simpleGrading (1 1 1)
    hex ( 16 17 18 19 20 21 22 23 ) cladding (10 1 1) simpleGrading (1 1 1)
);

edges 
(
);

boundary 
(
    fuelBottom
    {
        type empty;
        faces 
        (
            (0 3 2 1)
        );
    }

    fuelTop
    {
        type empty;
        faces 
        (
            (4 5 6 7)
        );
    }

    fuelOuter
    {
        type regionCoupledOFFBEAT;
        neighbourPatch cladInner;
        neighbourRegion region0;
        owner true;
        updateAMI true;
        faces 
        (
            (1 2 6 5)
        );
    }

    fuelFront
    {
        type wedge;
        faces 
        (
            (0 1 5 4)
        );
    }

    fuelBack
    {
        type wedge;
        faces 
        (
            (3 7 6 2)
        );
    }

    cladBottom
    {
        type empty;
        faces 
        (
            (8 11 10 9)
        );
    }

    cladTop_1
    {
        type empty;
        faces 
        (
            (12 13 14 15)
        );
    }

    cladInner
    {
        type regionCoupledOFFBEAT;
        neighbourPatch fuelOuter;
        neighbourRegion region0;
        owner false;
        updateAMI true;
        faces 
        (
            (8 12 15 11)
            (16 20 23 19)
        );
    }

    cladOuter
    {
        type patch;
        faces 
        (
            (9 10 14 13)
            (17 18 22 21)
        );
    }

    cladFront
    {
        type wedge;
        faces 
        (
            (8 9 13 12)
            (16 17 21 20)
        );
    }

    cladBack
    {
        type wedge;
        faces 
        (
            (11 15 14 10)
            (19 23 22 18)
        );
    }

    cladBottom_2
    {
        type empty;
        faces 
        (
            (16 19 18 17)
        );
    }

    cladTop
    {
        type empty;
        faces 
        (
            (20 21 22 23)
        );
    }

);

mergePatchPairs 
(
	(cladTop_1 cladBottom_2)
);

