/*--------------------------------*- C++ -*----------------------------------*\
| =========                 |                                                 |
| \\      /  F ield         | OpenFOAM: The Open Source CFD Toolbox           |
|  \\    /   O peration     | Version:  2.3.0                                 |
|   \\  /    A nd           | Web:      www.OpenFOAM.org                      |
|    \\/     M anipulation  |                                                 |
\*---------------------------------------------------------------------------*/
FoamFile
{
    version     2.0;
    format      ascii;
    class       dictionary;
    location    "system";
    object      controlDict;
}
// * * * * * * * * * * * * * * * * * * * * * * * * * * * * * * * * * * * * * //

libs ("libsciantix.so");
libs ("liboffbeat.so");

application     offbeat;

//- Run options:
startFrom       latestTime;
startTime       0;
stopAt          endTime;
endTime         100;
deltaT          1;

//- Write options:
writeControl    timeStep;
writeInterval   100;
purgeWrite      0;
writeFormat     ascii;
writeCompression off;
timeFormat      general;
timePrecision   20;
writePrecision   6;

functions 
{     
    averageTemperatureAndBurnup
    {
        type            volFieldValue;
        libs            ("libfieldFunctionObjects.so");

        log             true;
        writeControl    timeStep;
        writeInterval   1;
        writeFields     false;

        regionType      cellZone;
        name            fuel;
        operation       volAverage;

        fields
        (
            T
            Bu
        );
    }

    writePressure
    {
        type rodPressure;
        libs            ("libOffbeatFunctionObject.so");        
    }
}

//- Adjustable time step options:
adjustableTimeStep on;

maxDeltaT         6.048e5;
minDeltaT         0.001;
maxRelativeDeltaTIncrease 1e9;
minRelativeDeltaTDecrease 1e9;
maxRelativePowerIncrease  1e9;
maxRelativePowerDecrease  1e9;
maxBurnupIncrease 0.1;
maxAverageCreep   1e-3;
maxMaximumCreep	  1e-3;
maxFGR			  1e-8;	

runTimeModifiable true;


// ************************************************************************* //
